<?xml version="1.0" encoding="UTF-8"?>
<!-- Generated by scripts/build_actuated.py (T-02-06) - do not edit by hand. -->
<additional>
    <inductionLoop id="det_e_t_1" lane="e_t_1" pos="-20.0" period="100000" file="NUL" />
    <inductionLoop id="det_e_t_2" lane="e_t_2" pos="-20.0" period="100000" file="NUL" />
    <inductionLoop id="det_n_t_1" lane="n_t_1" pos="-20.0" period="100000" file="NUL" />
    <inductionLoop id="det_n_t_2" lane="n_t_2" pos="-20.0" period="100000" file="NUL" />
    <inductionLoop id="det_s_t_1" lane="s_t_1" pos="-20.0" period="100000" file="NUL" />
    <inductionLoop id="det_s_t_2" lane="s_t_2" pos="-20.0" period="100000" file="NUL" />
    <inductionLoop id="det_w_t_1" lane="w_t_1" pos="-20.0" period="100000" file="NUL" />
    <inductionLoop id="det_w_t_2" lane="w_t_2" pos="-20.0" period="100000" file="NUL" />
    <tlLogic id="C" programID="actuated" offset="0" type="actuated">
        <param key="max-gap" value="3.0" />
        <param key="e_t_1" value="det_e_t_1" />
        <param key="e_t_2" value="det_e_t_2" />
        <param key="n_t_1" value="det_n_t_1" />
        <param key="n_t_2" value="det_n_t_2" />
        <param key="s_t_1" value="det_s_t_1" />
        <param key="s_t_2" value="det_s_t_2" />
        <param key="w_t_1" value="det_w_t_1" />
        <param key="w_t_2" value="det_w_t_2" />
        <phase duration="10" minDur="10" maxDur="60" state="GGGrGGrrGGGrGGrr" />
        <phase duration="3" minDur="3" maxDur="3" state="GGyrGGrrGGyrGGrr" />
        <phase duration="10" minDur="10" maxDur="60" state="GGrGGGrrGGrGGGrr" />
        <phase duration="3" minDur="3" maxDur="3" state="GGrGGGrrGGryGGrr" />
        <phase duration="10" minDur="10" maxDur="60" state="GGGGGGrrGGrrGGrr" />
        <phase duration="3" minDur="3" maxDur="3" state="GGyyGGrrGGrrGGrr" />
        <phase duration="10" minDur="10" maxDur="60" state="GGrrGGrrGGGGGGrr" />
        <phase duration="3" minDur="3" maxDur="3" state="GGrrGGrrGGyyGGrr" />
        <phase duration="2" minDur="2" maxDur="2" state="GGrrGGrrGGrrGGrr" />
        <phase duration="10" minDur="10" maxDur="60" state="GGrrGGGrGGrrGGGr" />
        <phase duration="3" minDur="3" maxDur="3" state="GGrrGGyrGGrrGGyr" />
        <phase duration="10" minDur="10" maxDur="60" state="GGrrGGrGGGrrGGrG" />
        <phase duration="3" minDur="3" maxDur="3" state="GGrrGGrGGGrrGGry" />
        <phase duration="10" minDur="10" maxDur="60" state="GGrrGGGGGGrrGGrr" />
        <phase duration="3" minDur="3" maxDur="3" state="GGrrGGyyGGrrGGrr" />
        <phase duration="10" minDur="10" maxDur="60" state="GGrrGGrrGGrrGGGG" />
        <phase duration="3" minDur="3" maxDur="3" state="GGrrGGrrGGrrGGyy" />
        <phase duration="2" minDur="2" maxDur="2" state="GGrrGGrrGGrrGGrr" />
    </tlLogic>
</additional>
