<?xml version="1.0" encoding="UTF-8"?>

<!-- generated on 2026-06-21T23:10:07.423486+02:00 by Eclipse SUMO netconvert 1.27.0
<netconvertConfiguration xmlns:xsi="http://www.w3.org/2001/XMLSchema-instance" xsi:noNamespaceSchemaLocation="http://sumo.dlr.de/xsd/netconvertConfiguration.xsd">

    <input>
        <node-files value="stub.nod.xml"/>
        <edge-files value="stub.edg.xml"/>
    </input>

    <output>
        <output-file value="intersection_stub.net.xml"/>
    </output>

    <tls_building>
        <tls.default-type value="static"/>
    </tls_building>

    <junctions>
        <no-turnarounds value="true"/>
    </junctions>

</netconvertConfiguration>
-->

<net version="1.20" junctionCornerDetail="5" limitTurnSpeed="5.50" xmlns:xsi="http://www.w3.org/2001/XMLSchema-instance" xsi:noNamespaceSchemaLocation="http://sumo.dlr.de/xsd/net_file.xsd">

    <location netOffset="100.00,100.00" convBoundary="0.00,0.00,200.00,200.00" origBoundary="-100.00,-100.00,100.00,100.00" projParameter="!"/>

    <edge id=":C_0" function="internal">
        <lane id=":C_0_0" index="0" speed="6.51" length="9.03" shape="98.40,107.20 98.05,104.75 97.00,103.00 95.25,101.95 92.80,101.60"/>
    </edge>
    <edge id=":C_1" function="internal">
        <lane id=":C_1_0" index="0" speed="13.90" length="14.40" shape="98.40,107.20 98.40,92.80"/>
    </edge>
    <edge id=":C_2" function="internal">
        <lane id=":C_2_0" index="0" speed="8.00" length="4.07" shape="98.40,107.20 98.95,103.35 99.04,103.20"/>
    </edge>
    <edge id=":C_12" function="internal">
        <lane id=":C_12_0" index="0" speed="8.00" length="10.13" shape="99.04,103.20 100.60,100.60 103.35,98.95 107.20,98.40"/>
    </edge>
    <edge id=":C_3" function="internal">
        <lane id=":C_3_0" index="0" speed="6.51" length="9.03" shape="107.20,101.60 104.75,101.95 103.00,103.00 101.95,104.75 101.60,107.20"/>
    </edge>
    <edge id=":C_4" function="internal">
        <lane id=":C_4_0" index="0" speed="13.90" length="14.40" shape="107.20,101.60 92.80,101.60"/>
    </edge>
    <edge id=":C_5" function="internal">
        <lane id=":C_5_0" index="0" speed="8.00" length="4.07" shape="107.20,101.60 103.35,101.05 103.20,100.96"/>
    </edge>
    <edge id=":C_13" function="internal">
        <lane id=":C_13_0" index="0" speed="8.00" length="10.13" shape="103.20,100.96 100.60,99.40 98.95,96.65 98.40,92.80"/>
    </edge>
    <edge id=":C_6" function="internal">
        <lane id=":C_6_0" index="0" speed="6.51" length="9.03" shape="101.60,92.80 101.95,95.25 103.00,97.00 104.75,98.05 107.20,98.40"/>
    </edge>
    <edge id=":C_7" function="internal">
        <lane id=":C_7_0" index="0" speed="13.90" length="14.40" shape="101.60,92.80 101.60,107.20"/>
    </edge>
    <edge id=":C_8" function="internal">
        <lane id=":C_8_0" index="0" speed="8.00" length="4.07" shape="101.60,92.80 101.05,96.65 100.96,96.80"/>
    </edge>
    <edge id=":C_14" function="internal">
        <lane id=":C_14_0" index="0" speed="8.00" length="10.13" shape="100.96,96.80 99.40,99.40 96.65,101.05 92.80,101.60"/>
    </edge>
    <edge id=":C_9" function="internal">
        <lane id=":C_9_0" index="0" speed="6.51" length="9.03" shape="92.80,98.40 95.25,98.05 97.00,97.00 98.05,95.25 98.40,92.80"/>
    </edge>
    <edge id=":C_10" function="internal">
        <lane id=":C_10_0" index="0" speed="13.90" length="14.40" shape="92.80,98.40 107.20,98.40"/>
    </edge>
    <edge id=":C_11" function="internal">
        <lane id=":C_11_0" index="0" speed="8.00" length="4.07" shape="92.80,98.40 96.65,98.95 96.80,99.04"/>
    </edge>
    <edge id=":C_15" function="internal">
        <lane id=":C_15_0" index="0" speed="8.00" length="10.13" shape="96.80,99.04 99.40,100.60 101.05,103.35 101.60,107.20"/>
    </edge>

    <edge id="C2E" from="C" to="E" priority="-1">
        <lane id="C2E_0" index="0" speed="13.90" length="92.80" shape="107.20,98.40 200.00,98.40"/>
    </edge>
    <edge id="C2N" from="C" to="N" priority="-1">
        <lane id="C2N_0" index="0" speed="13.90" length="92.80" shape="101.60,107.20 101.60,200.00"/>
    </edge>
    <edge id="C2S" from="C" to="S" priority="-1">
        <lane id="C2S_0" index="0" speed="13.90" length="92.80" shape="98.40,92.80 98.40,0.00"/>
    </edge>
    <edge id="C2W" from="C" to="W" priority="-1">
        <lane id="C2W_0" index="0" speed="13.90" length="92.80" shape="92.80,101.60 0.00,101.60"/>
    </edge>
    <edge id="E2C" from="E" to="C" priority="-1">
        <lane id="E2C_0" index="0" speed="13.90" length="92.80" shape="200.00,101.60 107.20,101.60"/>
    </edge>
    <edge id="N2C" from="N" to="C" priority="-1">
        <lane id="N2C_0" index="0" speed="13.90" length="92.80" shape="98.40,200.00 98.40,107.20"/>
    </edge>
    <edge id="S2C" from="S" to="C" priority="-1">
        <lane id="S2C_0" index="0" speed="13.90" length="92.80" shape="101.60,0.00 101.60,92.80"/>
    </edge>
    <edge id="W2C" from="W" to="C" priority="-1">
        <lane id="W2C_0" index="0" speed="13.90" length="92.80" shape="0.00,98.40 92.80,98.40"/>
    </edge>

    <tlLogic id="C" type="static" programID="0" offset="0">
        <phase duration="42" state="GGgrrrGGgrrr"/>
        <phase duration="3"  state="yyyrrryyyrrr"/>
        <phase duration="42" state="rrrGGgrrrGGg"/>
        <phase duration="3"  state="rrryyyrrryyy"/>
    </tlLogic>

    <junction id="C" type="traffic_light" x="100.00" y="100.00" incLanes="N2C_0 E2C_0 S2C_0 W2C_0" intLanes=":C_0_0 :C_1_0 :C_12_0 :C_3_0 :C_4_0 :C_13_0 :C_6_0 :C_7_0 :C_14_0 :C_9_0 :C_10_0 :C_15_0" shape="96.80,107.20 103.20,107.20 103.64,104.98 104.20,104.20 104.98,103.64 105.98,103.31 107.20,103.20 107.20,96.80 104.98,96.36 104.20,95.80 103.64,95.02 103.31,94.02 103.20,92.80 96.80,92.80 96.36,95.02 95.80,95.80 95.02,96.36 94.02,96.69 92.80,96.80 92.80,103.20 95.02,103.64 95.80,104.20 96.36,104.98 96.69,105.98">
        <request index="0"  response="000000000000" foes="000100010000" cont="0"/>
        <request index="1"  response="100000100000" foes="111100110000" cont="0"/>
        <request index="2"  response="100111100000" foes="110111110000" cont="1"/>
        <request index="3"  response="000010000000" foes="100010000000" cont="0"/>
        <request index="4"  response="000110000111" foes="100110000111" cont="0"/>
        <request index="5"  response="111110000110" foes="111110000110" cont="1"/>
        <request index="6"  response="000000000000" foes="010000000100" cont="0"/>
        <request index="7"  response="100000100000" foes="110000111100" cont="0"/>
        <request index="8"  response="100000100011" foes="110000110111" cont="1"/>
        <request index="9"  response="000000000010" foes="000000100010" cont="0"/>
        <request index="10" response="000111000110" foes="000111100110" cont="0"/>
        <request index="11" response="000110011110" foes="000110111110" cont="1"/>
    </junction>
    <junction id="E" type="dead_end" x="200.00" y="100.00" incLanes="C2E_0" intLanes="" shape="200.00,100.00 200.00,96.80 200.00,100.00"/>
    <junction id="N" type="dead_end" x="100.00" y="200.00" incLanes="C2N_0" intLanes="" shape="100.00,200.00 103.20,200.00 100.00,200.00"/>
    <junction id="S" type="dead_end" x="100.00" y="0.00" incLanes="C2S_0" intLanes="" shape="100.00,0.00 96.80,0.00 100.00,0.00"/>
    <junction id="W" type="dead_end" x="0.00" y="100.00" incLanes="C2W_0" intLanes="" shape="0.00,100.00 0.00,103.20 0.00,100.00"/>

    <junction id=":C_12_0" type="internal" x="99.04" y="103.20" incLanes=":C_2_0 S2C_0" intLanes=":C_4_0 :C_5_0 :C_6_0 :C_7_0 :C_10_0 :C_11_0"/>
    <junction id=":C_13_0" type="internal" x="103.20" y="100.96" incLanes=":C_5_0 W2C_0" intLanes=":C_1_0 :C_2_0 :C_7_0 :C_8_0 :C_9_0 :C_10_0"/>
    <junction id=":C_14_0" type="internal" x="100.96" y="96.80" incLanes=":C_8_0 N2C_0" intLanes=":C_0_0 :C_1_0 :C_4_0 :C_5_0 :C_10_0 :C_11_0"/>
    <junction id=":C_15_0" type="internal" x="96.80" y="99.04" incLanes=":C_11_0 E2C_0" intLanes=":C_1_0 :C_2_0 :C_3_0 :C_4_0 :C_7_0 :C_8_0"/>

    <connection from="E2C" to="C2N" fromLane="0" toLane="0" via=":C_3_0" tl="C" linkIndex="3" dir="r" state="o"/>
    <connection from="E2C" to="C2W" fromLane="0" toLane="0" via=":C_4_0" tl="C" linkIndex="4" dir="s" state="o"/>
    <connection from="E2C" to="C2S" fromLane="0" toLane="0" via=":C_5_0" tl="C" linkIndex="5" dir="l" state="o"/>
    <connection from="N2C" to="C2W" fromLane="0" toLane="0" via=":C_0_0" tl="C" linkIndex="0" dir="r" state="O"/>
    <connection from="N2C" to="C2S" fromLane="0" toLane="0" via=":C_1_0" tl="C" linkIndex="1" dir="s" state="O"/>
    <connection from="N2C" to="C2E" fromLane="0" toLane="0" via=":C_2_0" tl="C" linkIndex="2" dir="l" state="o"/>
    <connection from="S2C" to="C2E" fromLane="0" toLane="0" via=":C_6_0" tl="C" linkIndex="6" dir="r" state="O"/>
    <connection from="S2C" to="C2N" fromLane="0" toLane="0" via=":C_7_0" tl="C" linkIndex="7" dir="s" state="O"/>
    <connection from="S2C" to="C2W" fromLane="0" toLane="0" via=":C_8_0" tl="C" linkIndex="8" dir="l" state="o"/>
    <connection from="W2C" to="C2S" fromLane="0" toLane="0" via=":C_9_0" tl="C" linkIndex="9" dir="r" state="o"/>
    <connection from="W2C" to="C2E" fromLane="0" toLane="0" via=":C_10_0" tl="C" linkIndex="10" dir="s" state="o"/>
    <connection from="W2C" to="C2N" fromLane="0" toLane="0" via=":C_11_0" tl="C" linkIndex="11" dir="l" state="o"/>

    <connection from=":C_0" to="C2W" fromLane="0" toLane="0" dir="r" state="M"/>
    <connection from=":C_1" to="C2S" fromLane="0" toLane="0" dir="s" state="M"/>
    <connection from=":C_2" to="C2E" fromLane="0" toLane="0" via=":C_12_0" dir="l" state="m"/>
    <connection from=":C_12" to="C2E" fromLane="0" toLane="0" dir="l" state="M"/>
    <connection from=":C_3" to="C2N" fromLane="0" toLane="0" dir="r" state="M"/>
    <connection from=":C_4" to="C2W" fromLane="0" toLane="0" dir="s" state="M"/>
    <connection from=":C_5" to="C2S" fromLane="0" toLane="0" via=":C_13_0" dir="l" state="m"/>
    <connection from=":C_13" to="C2S" fromLane="0" toLane="0" dir="l" state="M"/>
    <connection from=":C_6" to="C2E" fromLane="0" toLane="0" dir="r" state="M"/>
    <connection from=":C_7" to="C2N" fromLane="0" toLane="0" dir="s" state="M"/>
    <connection from=":C_8" to="C2W" fromLane="0" toLane="0" via=":C_14_0" dir="l" state="m"/>
    <connection from=":C_14" to="C2W" fromLane="0" toLane="0" dir="l" state="M"/>
    <connection from=":C_9" to="C2S" fromLane="0" toLane="0" dir="r" state="M"/>
    <connection from=":C_10" to="C2E" fromLane="0" toLane="0" dir="s" state="M"/>
    <connection from=":C_11" to="C2N" fromLane="0" toLane="0" via=":C_15_0" dir="l" state="m"/>
    <connection from=":C_15" to="C2N" fromLane="0" toLane="0" dir="l" state="M"/>

</net>
