<?xml version="1.0" encoding="UTF-8"?>
<!-- Throwaway stub edges for the T-00-01 vertical slice ONLY (single lane,
     one in + one out per arm). Not the real 3-lane MPLight network. -->
<edges>
    <edge id="N2C" from="N" to="C" numLanes="1" speed="13.9"/>
    <edge id="C2N" from="C" to="N" numLanes="1" speed="13.9"/>
    <edge id="S2C" from="S" to="C" numLanes="1" speed="13.9"/>
    <edge id="C2S" from="C" to="S" numLanes="1" speed="13.9"/>
    <edge id="E2C" from="E" to="C" numLanes="1" speed="13.9"/>
    <edge id="C2E" from="C" to="E" numLanes="1" speed="13.9"/>
    <edge id="W2C" from="W" to="C" numLanes="1" speed="13.9"/>
    <edge id="C2W" from="C" to="W" numLanes="1" speed="13.9"/>
</edges>
